IEEE data/004_bus/ieee/004ieee.dat
 00/00/01                      100.0  0    0 0                                                                                                                                                                                                                                                             
BUS DATA FOLLOWS                    4 ITEMS
   1 bus_1   100   1  1  3 1.08  0.     0.       0.        200.    71.01961 100.    1.08   999900 -99990    0.      0.        0                                                                                                                                                                            
   2 bus_2   100   1  1    1.018 -21.33 0.       0.        0.      0.       100.    1.       0.     0.      0.      0.        0                                                                                                                                                                            
   3 bus_3   100   1  1    0.98  -29.97 300.     100.      0.      0.       100.    1.       0.     0.      0.      0.5       0                                                                                                                                                                            
   4 bus_4   100   1  1  2 1.05  -19.72 0.       0.        100.    112.5976 100.    1.05   999900 -99990    0.      0.        0                                                                                                                                                                            
-999
BRANCH DATA FOLLOWS                    3 ITEMS
   1    2  1  1 1    0.        0.2         0.     0    0     0      0    0  0      0      0      0       0      0      0                                                                                                                                                                                   
   2    3  1  1 1    0.        0.05        0.     0    0     0      0    0  0      0      0      0       0      0      0                                                                                                                                                                                   
   2    4  1  1 1    0.        0.03        0.     0    0     0      0    0  0      0      0      0       0      0      0                                                                                                                                                                                   
-999
LOSS ZONES FOLLOWS   0 ITEMS
-99
INTERCHANGE DATA FOLLOWS      0 ITEMS
-9
TIE LINES FOLLOWS             0 ITEMS
-999
END OF DATA